 LISTING FILE: p01SpatialStresses.list
                         UNIT  16
#FTL               10      p01SpatialStresses.ftl
#SSM               34      p01SpatialStresses.ssm

 OPENING p01SpatialStresses.dis.grb
 FILE TYPE:FT6   UNIT  21

 OPENING p01SpatialStresses.bud
 FILE TYPE:FT6   UNIT  22

 OPENING p01SpatialStresses.hds
 FILE TYPE:FT6   UNIT  23

 OPENING p01SpatialStresses_rch_evt_list.ssm
 FILE TYPE:SSM   UNIT  34

 OPENING p01SpatialStresses.btn
 FILE TYPE:BTN   UNIT  31

 OPENING p01SpatialStresses.adv
 FILE TYPE:ADV   UNIT  32

 OPENING p01SpatialStresses.dsp
 FILE TYPE:DSP   UNIT  33

 OPENING p01SpatialStresses.rct
 FILE TYPE:RCT   UNIT  36

 OPENING p01SpatialStresses.gcg
 FILE TYPE:GCG   UNIT  35

 OPENING p01SpatialStresses_4mf6.ucn
 FILE TYPE:DATA(BINARY)   UNIT 201

 OPENING p01SpatialStresses_4mf6.mto
 FILE TYPE:DATA   UNIT 401

 OPENING p01SpatialStresses_4mf6._mas
 FILE TYPE:DATA   UNIT 601

                              +++++++++++++++++++++++++++++++++++++++++++++++++++++++++++++++++++++++
                              +                                                                     +
                              +                              MT3D-USGS                              +
                              +             A Modular 3D Multi-Species Transport Model              +
                              +    For Simulation of Advection, Dispersion and Chemical Reactions   +
                              +                of Contaminants in Groundwater Systems               +
                              +                                                                     +
                              +++++++++++++++++++++++++++++++++++++++++++++++++++++++++++++++++++++++

  ----- 
 | M T | ## BTN for MT3DMS, generated by Flopy.                                          
 | 3 D | ##                                                                              
  ----- 
 THE TRANSPORT MODEL CONSISTS OF     6 LAYER(S)    1 ROW(S)  101 COLUMN(S)
 NUMBER OF STRESS PERIOD(S) FOR TRANSPORT SIMULATION =    3
 NUMBER OF ALL COMPONENTS INCLUDED IN SIMULATION =    1
 NUMBER OF MOBILE COMPONENTS INCLUDED IN SIMULATION =    1
 UNIT FOR TIME IS D   ;  UNIT FOR LENGTH IS M   ;  UNIT FOR MASS IS KG  
 OPTIONAL PACKAGES INCLUDED IN CURRENT SIMULATION:
  o ADV   ON UNIT 32
  o DSP   ON UNIT 33
  o SSM   ON UNIT 34
  o RCT   ON UNIT 36
  o GCG   ON UNIT 35


 BTN1 -- BASIC TRANSPORT PACKAGE, VERSION 1, MAY 2016, INPUT READ FROM UNIT 31

 BTN PACKAGE KEYWORD INPUT: 
 DRYCELL OPTION NOT SET
  DRY CELL BUDGET OMITTED FROM GLOBAL MASS BALANCE SUMMARY

 LAYER NUMBER  AQUIFER TYPE
 ------------  ------------
       1            1
       2            1
       3            1
       4            1
       5            1
       6            1
                                       WIDTH ALONG ROWS (DELR)  =   10.00000    
                                       WIDTH ALONG COLS (DELC)  =   1.000000    
                                       TOP ELEV. OF 1ST LAYER   =   60.00000    

                     CELL THICKNESS (DZ)      FOR LAYER  1 READ ON UNIT  31 USING FORMAT: "         (101E15.6) "
                     ------------------------------------------------------------------------------------------

                     CELL THICKNESS (DZ)      FOR LAYER  2 READ ON UNIT  31 USING FORMAT: "         (101E15.6) "
                     ------------------------------------------------------------------------------------------

                     CELL THICKNESS (DZ)      FOR LAYER  3 READ ON UNIT  31 USING FORMAT: "         (101E15.6) "
                     ------------------------------------------------------------------------------------------

                     CELL THICKNESS (DZ)      FOR LAYER  4 READ ON UNIT  31 USING FORMAT: "         (101E15.6) "
                     ------------------------------------------------------------------------------------------

                     CELL THICKNESS (DZ)      FOR LAYER  5 READ ON UNIT  31 USING FORMAT: "         (101E15.6) "
                     ------------------------------------------------------------------------------------------

                     CELL THICKNESS (DZ)      FOR LAYER  6 READ ON UNIT  31 USING FORMAT: "         (101E15.6) "
                     ------------------------------------------------------------------------------------------
                                       POROSITY                 =  0.2500000     FOR LAYER  1
                                       POROSITY                 =  0.2500000     FOR LAYER  2
                                       POROSITY                 =  0.2500000     FOR LAYER  3
                                       POROSITY                 =  0.2500000     FOR LAYER  4
                                       POROSITY                 =  0.2500000     FOR LAYER  5
                                       POROSITY                 =  0.2500000     FOR LAYER  6

                     CONCN. BOUNDARY ARRAY    FOR LAYER  1 READ ON UNIT  31 USING FORMAT: "           (101I10) "
                     ------------------------------------------------------------------------------------------

                     CONCN. BOUNDARY ARRAY    FOR LAYER  2 READ ON UNIT  31 USING FORMAT: "           (101I10) "
                     ------------------------------------------------------------------------------------------

                     CONCN. BOUNDARY ARRAY    FOR LAYER  3 READ ON UNIT  31 USING FORMAT: "           (101I10) "
                     ------------------------------------------------------------------------------------------

                     CONCN. BOUNDARY ARRAY    FOR LAYER  4 READ ON UNIT  31 USING FORMAT: "           (101I10) "
                     ------------------------------------------------------------------------------------------

                     CONCN. BOUNDARY ARRAY    FOR LAYER  5 READ ON UNIT  31 USING FORMAT: "           (101I10) "
                     ------------------------------------------------------------------------------------------

                     CONCN. BOUNDARY ARRAY    FOR LAYER  6 READ ON UNIT  31 USING FORMAT: "           (101I10) "
                     ------------------------------------------------------------------------------------------

                     INITIAL CONC.: COMP.  01 FOR LAYER  1 READ ON UNIT  31 USING FORMAT: "         (101E15.6) "
                     ------------------------------------------------------------------------------------------

                     INITIAL CONC.: COMP.  01 FOR LAYER  2 READ ON UNIT  31 USING FORMAT: "         (101E15.6) "
                     ------------------------------------------------------------------------------------------

                     INITIAL CONC.: COMP.  01 FOR LAYER  3 READ ON UNIT  31 USING FORMAT: "         (101E15.6) "
                     ------------------------------------------------------------------------------------------

                     INITIAL CONC.: COMP.  01 FOR LAYER  4 READ ON UNIT  31 USING FORMAT: "         (101E15.6) "
                     ------------------------------------------------------------------------------------------

                     INITIAL CONC.: COMP.  01 FOR LAYER  5 READ ON UNIT  31 USING FORMAT: "         (101E15.6) "
                     ------------------------------------------------------------------------------------------

                     INITIAL CONC.: COMP.  01 FOR LAYER  6 READ ON UNIT  31 USING FORMAT: "         (101E15.6) "
                     ------------------------------------------------------------------------------------------

 VALUE INDICATING INACTIVE CONCENTRATION CELLS =   0.1000000E+31
 MINIMUM SATURATED THICKNESS [THKMIN] ALLOWED =  0.0100000 OF TOTAL CELL THICKNESS


 OUTPUT CONTROL OPTIONS
 ----------------------

 PRINT CELL CONCENTRATION USING FORMAT CODE:    1
 DO NOT PRINT PARTICLE NUMBER IN EACH CELL
 DO NOT PRINT RETARDATION FACTOR
 DO NOT PRINT DISPERSION COEFFICIENT
 SAVE DISSOLVED PHASE CONCENTRATIONS IN UNFORMATTED FILES [MT3Dnnn.UCN]
  FOR EACH SPECIES ON UNITS 201 AND ABOVE

 NUMBER OF TIMES AT WHICH SIMULATION RESULTS ARE SAVED =    0

 NUMBER OF OBSERVATION POINTS =    0

 SAVE ONE-LINE SUMMARY OF MASS BUDGETS IN FILES [MT3Dnnn.MAS]
  FOR EACH SPECIES ON UNITS 601 AND ABOVE, EVERY  1 TRANSPORT STEPS

 MAXIMUM LENGTH ALONG THE X (J) AXIS =   1010.000    
 MAXIMUM LENGTH ALONG THE Y (I) AXIS =   1.000000    
 MAXIMUM LENGTH ALONG THE Z (K) AXIS =   60.00000    

Processing Binary Grid File
  Detected regular MODFLOW grid (DIS)
  Detected VERSION 1
  Detected NTXT 16
  Detected LENTXT 100
  Detected NCELLS = 606
  Detected NLAY = 6
  Detected NROW = 1
  Detected NCOL = 101
  Detected NJA = 2816
  Detected XORIGIN = 0.0000000000000000
  Detected YORIGIN = 0.0000000000000000
  Detected ANGROT = 0.0000000000000000
  Detected double array DELR
  Detected double array DELC
  Detected double array TOP
  Detected double array BOTM
  Detected integer array IA
  Detected integer array JA
  Detected integer array IDOMAIN
  Detected integer array ICELLTYPE
Done processing Binary Grid File
Reading budget file to determine number of terms per time step.
    20.0000              STO-SS                 
    20.0000              STO-SY                 
    20.0000        FLOW-JA-FACE                 
    20.0000          DATA-SPDIS NPF             
    20.0000                 WEL WEL             
    20.0000                 RCH RCH             
    20.0000                 EVT EVT             
    20.0000                 CHD CHD-1           
    40.0000              STO-SS                 
Detected 8 unique flow terms in budget file.

 Found    FLOW-JA-FACE while looking for package flows. Skipping

  WEL package is active

  RCH package is active

  EVT package is active

 Found             CHD while looking for package flows. Skipping

 ADV1 -- ADVECTION PACKAGE, VERSION 1, MAY 2016, INPUT READ FROM UNIT 32
 ADVECTION IS SOLVED WITH THE UPSTREAM FINITE DIFFERENCE SCHEME
 COURANT NUMBER ALLOWED IN SOLVING THE ADVECTION TERM = 0.500    


 ADVECTION SOLUTION OPTIONS
 --------------------------

 ADVECTION IS SOLVED WITH THE UPSTREAM FINITE DIFFERENCE SCHEME
 COURANT NUMBER ALLOWED IN SOLVING THE ADVECTION TERM = 0.500    

 DSP1 -- DISPERSION PACKAGE, VERSION 1, MAY 2016, INPUT READ FROM UNIT 33


 DISPERSION INPUT PARAMETERS
 ---------------------------

                                       LONG. DISPERSIVITY (AL)  =   10.00000     FOR LAYER  1
                                       LONG. DISPERSIVITY (AL)  =   10.00000     FOR LAYER  2
                                       LONG. DISPERSIVITY (AL)  =   10.00000     FOR LAYER  3
                                       LONG. DISPERSIVITY (AL)  =   10.00000     FOR LAYER  4
                                       LONG. DISPERSIVITY (AL)  =   10.00000     FOR LAYER  5
                                       LONG. DISPERSIVITY (AL)  =   10.00000     FOR LAYER  6
                                       H. TRANS./LONG. DISP.    =  0.1000000    
                                       V. TRANS./LONG. DISP.    =  0.1000000E-01
                                       DIFFUSION COEFFICIENT    =  0.1000000E-08

 SSM1 -- SINK & SOURCE MIXING PACKAGE, VERSION 1, MAY 2016, INPUT READ FROM UNIT 34
 HEADER LINE OF THE SSM PACKAGE INPUT FILE:
  T F F F F F F F F F F F F F F F                                        
 MAJOR STRESS COMPONENTS PRESENT IN THE FLOW MODEL:
  o WELL [WEL]
  o RECHARGE [RCH]
  o EVAPOTRANSPIRATION [EVT]
 MAXIMUM NUMBER OF POINT SINKS/SOURCES =     215

 RCT1 -- CHEMICAL REACTION PACKAGE, VERSION 1, MAY 2016, INPUT READ FROM UNIT 36
 TYPE OF SORPTION SELECTED IS [LINEAR]
 FIRST-ORDER IRREVERSIBLE REACTION [RADIOACTIVE DECAY OR BIODEGRADATION] IS SIMULATED
 REACTION COEFFICIENTS ASSIGNED CELL-BY-CELL
 INITIAL SORBED/IMMOBILE PHASE CONCENTRATION ASSIGNED BY DEFAULT
 SAVE SORBED/IMMOBILE PHASE CONCENTRATIONS IN UNFORMATTED FILES [MT3DnnnS.UCN]
  FOR EACH SPECIES ON UNITS 301 AND ABOVE, IF SORPTION/MASS TRANSFER SIMULATED


 SORPTION AND 1ST/0TH ORDER REACTION PARAMETERS
 ----------------------------------------------

                                       BULK DENSITY (RHOB)      =  0.2500000     FOR LAYER  1
                                       BULK DENSITY (RHOB)      =  0.2500000     FOR LAYER  2
                                       BULK DENSITY (RHOB)      =  0.2500000     FOR LAYER  3
                                       BULK DENSITY (RHOB)      =  0.2500000     FOR LAYER  4
                                       BULK DENSITY (RHOB)      =  0.2500000     FOR LAYER  5
                                       BULK DENSITY (RHOB)      =  0.2500000     FOR LAYER  6
                                       1ST SORP. COEF. COMP. 01 =   0.000000     FOR LAYER  1
                                       1ST SORP. COEF. COMP. 01 =   0.000000     FOR LAYER  2
                                       1ST SORP. COEF. COMP. 01 =   0.000000     FOR LAYER  3
                                       1ST SORP. COEF. COMP. 01 =   0.000000     FOR LAYER  4
                                       1ST SORP. COEF. COMP. 01 =   0.000000     FOR LAYER  5
                                       1ST SORP. COEF. COMP. 01 =   0.000000     FOR LAYER  6
                                       2ND SORP. COEF. COMP. 01 =   0.000000     FOR LAYER  1
                                       2ND SORP. COEF. COMP. 01 =   0.000000     FOR LAYER  2
                                       2ND SORP. COEF. COMP. 01 =   0.000000     FOR LAYER  3
                                       2ND SORP. COEF. COMP. 01 =   0.000000     FOR LAYER  4
                                       2ND SORP. COEF. COMP. 01 =   0.000000     FOR LAYER  5
                                       2ND SORP. COEF. COMP. 01 =   0.000000     FOR LAYER  6
                                       SOLUTE RXN RATE: COMP 01 =  0.2000000E-02 FOR LAYER  1
                                       SOLUTE RXN RATE: COMP 01 =  0.2000000E-02 FOR LAYER  2
                                       SOLUTE RXN RATE: COMP 01 =  0.2000000E-02 FOR LAYER  3
                                       SOLUTE RXN RATE: COMP 01 =  0.2000000E-02 FOR LAYER  4
                                       SOLUTE RXN RATE: COMP 01 =  0.2000000E-02 FOR LAYER  5
                                       SOLUTE RXN RATE: COMP 01 =  0.2000000E-02 FOR LAYER  6
                                       SORBED RXN RATE: COMP 01 =  0.2000000E-02 FOR LAYER  1
                                       SORBED RXN RATE: COMP 01 =  0.2000000E-02 FOR LAYER  2
                                       SORBED RXN RATE: COMP 01 =  0.2000000E-02 FOR LAYER  3
                                       SORBED RXN RATE: COMP 01 =  0.2000000E-02 FOR LAYER  4
                                       SORBED RXN RATE: COMP 01 =  0.2000000E-02 FOR LAYER  5
                                       SORBED RXN RATE: COMP 01 =  0.2000000E-02 FOR LAYER  6

 MAXIMUM STEPSIZE WHICH MEETS STABILITY CRITERION OF THE REACTION TERM
 =  250.0     AT K=   1, I=   1, J=   2

 GCG1 -- GENERALIZED CONJUGATE GRADIENT SOLVER PACKAGE, VERSION 1, OCTOBER 2010 INPUT READ FROM UNIT 35
 MAXIMUM OF10000 OUTER ITERATIONS
        AND   50 INNER ITERATIONS ALLOWED FOR CLOSURE
 THE PRECONDITIONING TYPE SELECTED IS MODIFIED INCOMPLETE CHOLESKY (MIC).
 DISPERSION CROSS TERMS LUMPED INTO RIGHT-HAND-SIDE



                                               SOLUTION BY THE GENERALIZED CONJUGATE GRADIENT METHOD
                                               -----------------------------------------------------
                                     MAXIMUM OUTER ITERATIONS ALLOWED FOR CLOSURE =    10000
                                     MAXIMUM INNER ITERATIONS ALLOWED FOR CLOSURE =       50
                                                    PRECONDITIONING TYPE SELECTED =    3
                                                           ACCELERATION PARAMETER =     1.0000    
                                       CONCENTRATION CHANGE CRITERION FOR CLOSURE =    0.10000E-05
                                       GCG CONCENTRATION CHANGE PRINTOUT INTERVAL =      999


                                   ++++++++++++++++++++++++++++++++++++++++++++++++++++++++++++++
                                                       STRESS PERIOD NO.  001
                                   ++++++++++++++++++++++++++++++++++++++++++++++++++++++++++++++


 LENGTH OF CURRENT STRESS PERIOD =   200.0000    
 NUMBER OF TIME STEPS FOR CURRENT STRESS PERIOD =   10
 TIME STEP MULTIPLIER USED IN FLOW SOLUTION =   1.000000    

 ***Type of Transport Simulation is TRANSIENT

 USER-SPECIFIED TRANSPORT STEPSIZE =   50.00000    D   
 MAXIMUM NUMBER OF TRANSPORT STEPS ALLOWED  IN ONE FLOW TIME STEP =     50000
 MULTIPLIER FOR SUCCESSIVE TRANSPORT STEPS  [USED IN IMPLICIT SCHEMES] =     1.000
 MAXIMUM TRANSPORT STEP SIZE  [USED IN IMPLICIT SCHEMES] =   0.000000    D   

       NO    LAYER   ROW   COLUMN   CONCENTRATION       TYPE            COMPONENT
       2       1       1       1       1.500000         .000000E+00   0     1
       3       1       1       2       1.500000         .000000E+00   0     1
       4       1       1       3       1.500000         .000000E+00   0     1
       5       1       1       4       1.500000         .000000E+00   0     1
       6       1       1       5       1.500000         .000000E+00   0     1
       7       1       1       6       1.500000         .000000E+00   0     1
       8       1       1       7       1.500000         .000000E+00   0     1
       9       1       1       8       1.500000         .000000E+00   0     1
      10       1       1       9       1.500000         .000000E+00   0     1
      11       1       1      10       1.500000         .000000E+00   0     1
      12       1       1      11       1.500000         .000000E+00   0     1
      13       1       1      12       1.500000         .000000E+00   0     1
      14       1       1      13       1.500000         .000000E+00   0     1
      15       1       1      14       1.500000         .000000E+00   0     1
      16       1       1      15       1.500000         .000000E+00   0     1
      17       1       1      16       1.500000         .000000E+00   0     1
      18       1       1      17       1.500000         .000000E+00   0     1
      19       1       1      18       1.500000         .000000E+00   0     1
      20       1       1      19       1.500000         .000000E+00   0     1
      21       1       1      20       1.500000         .000000E+00   0     1
      22       1       1      21       1.500000         .000000E+00   0     1
      23       1       1      22       1.500000         .000000E+00   0     1
      24       1       1      23       1.500000         .000000E+00   0     1
      25       1       1      24       1.500000         .000000E+00   0     1
      26       1       1      25       1.500000         .000000E+00   0     1
      27       1       1      26       1.500000         .000000E+00   0     1
      28       1       1      27       1.500000         .000000E+00   0     1
      29       1       1      28       1.500000         .000000E+00   0     1
      30       1       1      29       1.500000         .000000E+00   0     1
      31       1       1      30       1.500000         .000000E+00   0     1
      32       1       1      31       1.500000         .000000E+00   0     1
      33       1       1      32       1.500000         .000000E+00   0     1
      34       1       1      33       1.500000         .000000E+00   0     1
      35       1       1      34       1.500000         .000000E+00   0     1
      36       1       1      35       1.500000         .000000E+00   0     1
      37       1       1      36       1.500000         .000000E+00   0     1
      38       1       1      37       1.500000         .000000E+00   0     1
      39       1       1      38       1.500000         .000000E+00   0     1
      40       1       1      39       1.500000         .000000E+00   0     1
      41       1       1      40       1.500000         .000000E+00   0     1
      42       1       1      41       1.500000         .000000E+00   0     1
      43       1       1      42       1.500000         .000000E+00   0     1
      44       1       1      43       1.500000         .000000E+00   0     1
      45       1       1      44       1.500000         .000000E+00   0     1
      46       1       1      45       1.500000         .000000E+00   0     1
      47       1       1      46       1.500000         .000000E+00   0     1
      48       1       1      47       1.500000         .000000E+00   0     1
      49       1       1      48       1.500000         .000000E+00   0     1
      50       1       1      49       1.500000         .000000E+00   0     1
      51       1       1      50       1.500000         .000000E+00   0     1
      52       1       1      51       1.500000         .000000E+00   0     1
      53       1       1      52       1.500000         .000000E+00   0     1
      54       1       1      53       1.500000         .000000E+00   0     1
      55       1       1      54       1.500000         .000000E+00   0     1
      56       1       1      55       1.500000         .000000E+00   0     1
      57       1       1      56       1.500000         .000000E+00   0     1
      58       1       1      57       1.500000         .000000E+00   0     1
      59       1       1      58       1.500000         .000000E+00   0     1
      60       1       1      59       1.500000         .000000E+00   0     1
      61       1       1      60       1.500000         .000000E+00   0     1
      62       1       1      61       1.500000         .000000E+00   0     1
      63       1       1      62       1.500000         .000000E+00   0     1
      64       1       1      63       1.500000         .000000E+00   0     1
      65       1       1      64       1.500000         .000000E+00   0     1
      66       1       1      65       1.500000         .000000E+00   0     1
      67       1       1      66       1.500000         .000000E+00   0     1
      68       1       1      67       1.500000         .000000E+00   0     1
      69       1       1      68       1.500000         .000000E+00   0     1
      70       1       1      69       1.500000         .000000E+00   0     1
      71       1       1      70       1.500000         .000000E+00   0     1
      72       1       1      71       1.500000         .000000E+00   0     1
      73       1       1      72       1.500000         .000000E+00   0     1
      74       1       1      73       1.500000         .000000E+00   0     1
      75       1       1      74       1.500000         .000000E+00   0     1
      76       1       1      75       1.500000         .000000E+00   0     1
      77       1       1      76       1.500000         .000000E+00   0     1
      78       1       1      77       1.500000         .000000E+00   0     1
      79       1       1      78       1.500000         .000000E+00   0     1
      80       1       1      79       1.500000         .000000E+00   0     1
      81       1       1      80       1.500000         .000000E+00   0     1
      82       1       1      81       1.500000         .000000E+00   0     1
      83       1       1      82       1.500000         .000000E+00   0     1
      84       1       1      83       1.500000         .000000E+00   0     1
      85       1       1      84       1.500000         .000000E+00   0     1
      86       1       1      85       1.500000         .000000E+00   0     1
      87       1       1      86       1.500000         .000000E+00   0     1
      88       1       1      87       1.500000         .000000E+00   0     1
      89       1       1      88       1.500000         .000000E+00   0     1
      90       1       1      89       1.500000         .000000E+00   0     1
      91       1       1      90       1.500000         .000000E+00   0     1
      92       1       1      91       1.500000         .000000E+00   0     1
      93       1       1      92       1.500000         .000000E+00   0     1
      94       1       1      93       1.500000         .000000E+00   0     1
      95       1       1      94       1.500000         .000000E+00   0     1
      96       1       1      95       1.500000         .000000E+00   0     1
      97       1       1      96       1.500000         .000000E+00   0     1
      98       1       1      97       1.500000         .000000E+00   0     1
      99       1       1      98       1.500000         .000000E+00   0     1
     100       1       1      99       1.500000         .000000E+00   0     1
     101       1       1     100       1.500000         .000000E+00   0     1
     102       1       1     101       1.500000         .000000E+00   0     1
     103       1       1       1       0.000000         .000000E+00
       1


                                          ================================================
                                                         TIME STEP NO.  001
                                          ================================================

 FROM TIME =   0.0000     TO    20.000    


 RP1 Processing           STO-SS

 RP1 Processing           STO-SY

 RP1 Processing:     FLOW-JA-FACE

 RP1 Processing       DATA-SPDIS

 MAXIMUM STEPSIZE DURING WHICH ANY PARTICLE CANNOT MOVE MORE THAN ONE CELL
 =  25.42    (WHEN MIN. R.F.=1)  AT K=   1, I=   1, J= 100

 MAXIMUM STEPSIZE WHICH MEETS STABILITY CRITERION OF THE ADVECTION TERM
 (FOR PURE FINITE-DIFFERENCE OPTION, MIXELM=0) 
 =  24.07    (WHEN MIN. R.F.=1)  AT K=   1, I=   1, J= 101

 RP2 Processing              WEL

 RP2 Processing              RCH

 RP2 Processing              EVT

 RP2 Processing              CHD

 MAXIMUM STEPSIZE WHICH MEETS STABILITY CRITERION OF THE SINK & SOURCE TERM
 =  29.92    (WHEN MIN. R.F.=1)  AT K=   6, I=   1, J=   1

 MAXIMUM STEPSIZE WHICH MEETS STABILITY CRITERION OF THE DISPERSION TERM
 =  12.23    (WHEN MIN. R.F.=1)  AT K=   1, I=   1, J= 100


     3 CALLS TO GCG PACKAGE FOR TRANSPORT TIME STEP     1 IN FLOW TIME STEP     1 STRESS PERIOD     1
      7 TOTAL ITERATIONS
  MAXIMUM CONCENTRATION CHANGES FOR EACH ITERATION:
  MAX. CHANGE LAYER,ROW,COL MAX. CHANGE LAYER,ROW,COL MAX. CHANGE LAYER,ROW,COL MAX. CHANGE LAYER,ROW,COL MAX. CHANGE LAYER,ROW,COL
 ------------------------------------------------------------------------------------------------------------------------------------
   0.4923     (  6,  1,  2)  0.5466E-03 (  1,  1,  3)  0.1043E-05 (  1,  1,  2)  0.3725E-08 (  2,  1,  5)  0.2988E-03 (  1,  1,  4)
   0.6035E-06 (  2,  1,  4)   0.000     (  1,  1,  1)


                                          ================================================
                                                         TIME STEP NO.  002
                                          ================================================

 FROM TIME =   20.000     TO    40.000    


 RP1 Processing           STO-SS

 RP1 Processing           STO-SY

 RP1 Processing:     FLOW-JA-FACE

 RP1 Processing       DATA-SPDIS

 MAXIMUM STEPSIZE DURING WHICH ANY PARTICLE CANNOT MOVE MORE THAN ONE CELL
 =  25.42    (WHEN MIN. R.F.=1)  AT K=   1, I=   1, J= 100

 MAXIMUM STEPSIZE WHICH MEETS STABILITY CRITERION OF THE ADVECTION TERM
 (FOR PURE FINITE-DIFFERENCE OPTION, MIXELM=0) 
 =  24.07    (WHEN MIN. R.F.=1)  AT K=   1, I=   1, J= 101

 RP2 Processing              WEL

 RP2 Processing              RCH

 RP2 Processing              EVT

 RP2 Processing              CHD

 MAXIMUM STEPSIZE WHICH MEETS STABILITY CRITERION OF THE SINK & SOURCE TERM
 =  29.92    (WHEN MIN. R.F.=1)  AT K=   6, I=   1, J=   1

 MAXIMUM STEPSIZE WHICH MEETS STABILITY CRITERION OF THE DISPERSION TERM
 =  12.23    (WHEN MIN. R.F.=1)  AT K=   1, I=   1, J= 100


     3 CALLS TO GCG PACKAGE FOR TRANSPORT TIME STEP     1 IN FLOW TIME STEP     2 STRESS PERIOD     1
      6 TOTAL ITERATIONS
  MAXIMUM CONCENTRATION CHANGES FOR EACH ITERATION:
  MAX. CHANGE LAYER,ROW,COL MAX. CHANGE LAYER,ROW,COL MAX. CHANGE LAYER,ROW,COL MAX. CHANGE LAYER,ROW,COL MAX. CHANGE LAYER,ROW,COL
 ------------------------------------------------------------------------------------------------------------------------------------
   0.2062     (  2,  1,  2)  0.2746E-03 (  1,  1,  4)  0.6706E-06 (  2,  1,  5)  0.1463E-03 (  1,  1,  5)  0.3427E-06 (  2,  1,  5)
    0.000     (  1,  1,  1)


                                          ================================================
                                                         TIME STEP NO.  003
                                          ================================================

 FROM TIME =   40.000     TO    60.000    


 RP1 Processing           STO-SS

 RP1 Processing           STO-SY

 RP1 Processing:     FLOW-JA-FACE

 RP1 Processing       DATA-SPDIS

 MAXIMUM STEPSIZE DURING WHICH ANY PARTICLE CANNOT MOVE MORE THAN ONE CELL
 =  25.42    (WHEN MIN. R.F.=1)  AT K=   1, I=   1, J= 100

 MAXIMUM STEPSIZE WHICH MEETS STABILITY CRITERION OF THE ADVECTION TERM
 (FOR PURE FINITE-DIFFERENCE OPTION, MIXELM=0) 
 =  24.07    (WHEN MIN. R.F.=1)  AT K=   1, I=   1, J= 101

 RP2 Processing              WEL
