 LISTING FILE: CrnkNic.m3d
                         UNIT  16

 OPENING CrnkNic.btn
 FILE TYPE:BTN   UNIT   1

 OPENING CrnkNic.adv
 FILE TYPE:ADV   UNIT   2

 OPENING CrnkNic.ssm
 FILE TYPE:SSM   UNIT   4

 OPENING CrnkNic.gcg
 FILE TYPE:GCG   UNIT   9

 OPENING CrnkNic.sft
 FILE TYPE:SFT   UNIT  19

 OPENING CrnkNic.ftl
 FILE TYPE:FTL   UNIT  10

 OPENING CrnkNic.sftobs
 FILE TYPE:DATA   UNIT  82

                              +++++++++++++++++++++++++++++++++++++++++++++++++++++++++++++++++++++++
                              +                                                                     +
                              +                              MT3D-USGS                              +
                              +             A Modular 3D Multi-Species Transport Model              +
                              +    For Simulation of Advection, Dispersion and Chemical Reactions   +
                              +                of Contaminants in Groundwater Systems               +
                              +                                                                     +
                              +++++++++++++++++++++++++++++++++++++++++++++++++++++++++++++++++++++++

  ----- 
 | M T | Conversion from Groundwater Vistas                                              
 | 3 D | MT3D Model                                                                      
  ----- 
 THE TRANSPORT MODEL CONSISTS OF     1 LAYER(S)    3 ROW(S)  650 COLUMN(S)
 NUMBER OF STRESS PERIOD(S) FOR TRANSPORT SIMULATION =    3
 NUMBER OF ALL COMPONENTS INCLUDED IN SIMULATION =    1
 NUMBER OF MOBILE COMPONENTS INCLUDED IN SIMULATION =    1
 UNIT FOR TIME IS sec ;  UNIT FOR LENGTH IS   m ;  UNIT FOR MASS IS  g  
 OPTIONAL PACKAGES INCLUDED IN CURRENT SIMULATION:
  o ADV   ON UNIT  2
  o SSM   ON UNIT  4
  o GCG   ON UNIT  9
  o SFT   ON UNIT 19


 BTN1 -- BASIC TRANSPORT PACKAGE, VERSION 1, MAY 2016, INPUT READ FROM UNIT  1

 BTN PACKAGE KEYWORD INPUT: 
 DRYCELL OPTION NOT SET
  FTL FLOW TERMS WILL BE ECHOED TO OUT FILE
  DRY CELL BUDGET OMITTED FROM GLOBAL MASS BALANCE SUMMARY

 LAYER NUMBER  AQUIFER TYPE
 ------------  ------------
       1            1
                                       WIDTH ALONG ROWS (DELR)  =   1.000000    
                                       WIDTH ALONG COLS (DELC)  =   5.000000    

                           TOP ELEV. OF 1ST LAYER   READ ON UNIT   1 USING FORMAT: "           (650f6.2)"
                           -----------------------------------------------------------------------------

           1          2          3          4          5          6          7          8          9         10         11
          12         13         14         15         16         17         18         19         20         21         22
          23         24         25         26         27         28         29         30         31         32         33
          34         35         36         37         38         39         40         41         42         43         44
          45         46         47         48         49         50         51         52         53         54         55
          56         57         58         59         60         61         62         63         64         65         66
          67         68         69         70         71         72         73         74         75         76         77
          78         79         80         81         82         83         84         85         86         87         88
          89         90         91         92         93         94         95         96         97         98         99
         100        101        102        103        104        105        106        107        108        109        110
         111        112        113        114        115        116        117        118        119        120        121
         122        123        124        125        126        127        128        129        130        131        132
         133        134        135        136        137        138        139        140        141        142        143
         144        145        146        147        148        149        150        151        152        153        154
         155        156        157        158        159        160        161        162        163        164        165
         166        167        168        169        170        171        172        173        174        175        176
         177        178        179        180        181        182        183        184        185        186        187
         188        189        190        191        192        193        194        195        196        197        198
         199        200        201        202        203        204        205        206        207        208        209
         210        211        212        213        214        215        216        217        218        219        220
         221        222        223        224        225        226        227        228        229        230        231
         232        233        234        235        236        237        238        239        240        241        242
         243        244        245        246        247        248        249        250        251        252        253
         254        255        256        257        258        259        260        261        262        263        264
         265        266        267        268        269        270        271        272        273        274        275
         276        277        278        279        280        281        282        283        284        285        286
         287        288        289        290        291        292        293        294        295        296        297
         298        299        300        301        302        303        304        305        306        307        308
         309        310        311        312        313        314        315        316        317        318        319
         320        321        322        323        324        325        326        327        328        329        330
         331        332        333        334        335        336        337        338        339        340        341
         342        343        344        345        346        347        348        349        350        351        352
         353        354        355        356        357        358        359        360        361        362        363
         364        365        366        367        368        369        370        371        372        373        374
         375        376        377        378        379        380        381        382        383        384        385
         386        387        388        389        390        391        392        393        394        395        396
         397        398        399        400        401        402        403        404        405        406        407
         408        409        410        411        412        413        414        415        416        417        418
         419        420        421        422        423        424        425        426        427        428        429
         430        431        432        433        434        435        436        437        438        439        440
         441        442        443        444        445        446        447        448        449        450        451
         452        453        454        455        456        457        458        459        460        461        462
         463        464        465        466        467        468        469        470        471        472        473
         474        475        476        477        478        479        480        481        482        483        484
         485        486        487        488        489        490        491        492        493        494        495
         496        497        498        499        500        501        502        503        504        505        506
         507        508        509        510        511        512        513        514        515        516        517
         518        519        520        521        522        523        524        525        526        527        528
         529        530        531        532        533        534        535        536        537        538        539
         540        541        542        543        544        545        546        547        548        549        550
         551        552        553        554        555        556        557        558        559        560        561
         562        563        564        565        566        567        568        569        570        571        572
         573        574        575        576        577        578        579        580        581        582        583
         584        585        586        587        588        589        590        591        592        593        594
         595        596        597        598        599        600        601        602        603        604        605
         606        607        608        609        610        611        612        613        614        615        616
         617        618        619        620        621        622        623        624        625        626        627
         628        629        630        631        632        633        634        635        636        637        638
         639        640        641        642        643        644        645        646        647        648        649
         650
 .........................................................................................................................
   1    100.       100.       99.9       99.9       99.9       99.8       99.8       99.8       99.8       99.7       99.7    
        99.7       99.6       99.6       99.6       99.6       99.5       99.5       99.5       99.4       99.4       99.4    
        99.3       99.3       99.3       99.2       99.2       99.2       99.2       99.1       99.1       99.1       99.0    
        99.0       99.0       98.9       98.9       98.9       98.9       98.8       98.8       98.8       98.7       98.7    
        98.7       98.7       98.6       98.6       98.6       98.5       98.5       98.5       98.4       98.4       98.4    
        98.3       98.3       98.3       98.3       98.2       98.2       98.2       98.1       98.1       98.1       98.1    
        98.0       98.0       98.0       97.9       97.9       97.9       97.8       97.8       97.8       97.8       97.7    
        97.7       97.7       97.6       97.6       97.6       97.5       97.5       97.5       97.4       97.4       97.4    
        97.4       97.3       97.3       97.3       97.2       97.2       97.2       97.2       97.1       97.1       97.1    
        97.0       97.0       97.0       96.9       96.9       96.9       96.8       96.8       96.8       96.8       96.7    
        96.7       96.7       96.6       96.6       96.6       96.6       96.5       96.5       96.5       96.4       96.4    
        96.4       96.3       96.3       96.3       96.2       96.2       96.2       96.2       96.1       96.1       96.1    
        96.0       96.0       96.0       95.9       95.9       95.9       95.9       95.8       95.8       95.8       95.7    
        95.7       95.7       95.7       95.6       95.6       95.6       95.5       95.5       95.5       95.4       95.4    
        95.4       95.3       95.3       95.3       95.3       95.2       95.2       95.2       95.1       95.1       95.1    
        95.1       95.0       95.0       95.0       94.9       94.9       94.9       94.8       94.8       94.8       94.8    
        94.7       94.7       94.7       94.6       94.6       94.6       94.5       94.5       94.5       94.4       94.4    
        94.4       94.4       94.3       94.3       94.3       94.2       94.2       94.2       94.2       94.1       94.1    
        94.1       94.0       94.0       94.0       93.9       93.9       93.9       93.8       93.8       93.8       93.8    
        93.7       93.7       93.7       93.6       93.6       93.6       93.6       93.5       93.5       93.5       93.4    
        93.4       93.4       93.3       93.3       93.3       93.2       93.2       93.2       93.2       93.1       93.1    
        93.1       93.0       93.0       93.0       92.9       92.9       92.9       92.9       92.8       92.8       92.8    
        92.7       92.7       92.7       92.7       92.6       92.6       92.6       92.5       92.5       92.5       92.4    
        92.4       92.4       92.3       92.3       92.3       92.3       92.2       92.2       92.2       92.1       92.1    
        92.1       92.1       92.0       92.0       92.0       91.9       91.9       91.9       91.8       91.8       91.8    
        91.8       91.7       91.7       91.7       91.6       91.6       91.6       91.5       91.5       91.5       91.4    
        91.4       91.4       91.4       91.3       91.3       91.3       91.2       91.2       91.2       91.2       91.1    
        91.1       91.1       91.0       91.0       91.0       90.9       90.9       90.9       90.8       90.8       90.8    
        90.8       90.7       90.7       90.7       90.6       90.6       90.6       90.6       90.5       90.5       90.5    
        90.4       90.4       90.4       90.3       90.3       90.3       90.2       90.2       90.2       90.2       90.1    
        90.1       90.1       90.0       90.0       90.0       89.9       89.9       89.9       89.9       89.8       89.8    
        89.8       89.7       89.7       89.7       89.7       89.6       89.6       89.6       89.5       89.5       89.5    
        89.4       89.4       89.4       89.3       89.3       89.3       89.3       89.2       89.2       89.2       89.1    
        89.1       89.1       89.1       89.0       89.0       89.0       88.9       88.9       88.9       88.8       88.8    
        88.8       88.8       88.7       88.7       88.7       88.6       88.6       88.6       88.5       88.5       88.5    
        88.4       88.4       88.4       88.4       88.3       88.3       88.3       88.2       88.2       88.2       88.2    
        88.1       88.1       88.1       88.0       88.0       88.0       87.9       87.9       87.9       87.8       87.8    
        87.8       87.8       87.7       87.7       87.7       87.6       87.6       87.6       87.6       87.5       87.5    
        87.5       87.4       87.4       87.4       87.3       87.3       87.3       87.2       87.2       87.2       87.2    
        87.1       87.1       87.1       87.0       87.0       87.0       86.9       86.9       86.9       86.9       86.8    
        86.8       86.8       86.7       86.7       86.7       86.7       86.6       86.6       86.6       86.5       86.5    
        86.5       86.4       86.4       86.4       86.3       86.3       86.3       86.3       86.2       86.2       86.2    
        86.1       86.1       86.1       86.1       86.0       86.0       86.0       85.9       85.9       85.9       85.8    
        85.8       85.8       85.8       85.7       85.7       85.7       85.6       85.6       85.6       85.5       85.5    
        85.5       85.4       85.4       85.4       85.4       85.3       85.3       85.3       85.2       85.2       85.2    
        85.2       85.1       85.1       85.1       85.0       85.0       85.0       84.9       84.9       84.9       84.8    
        84.8       84.8       84.8       84.7       84.7       84.7       84.6       84.6       84.6       84.6       84.5    
        84.5       84.5       84.4       84.4       84.4       84.3       84.3       84.3       84.2       84.2       84.2    
        84.2       84.1       84.1       84.1       84.0       84.0       84.0       83.9       83.9       83.9       83.9    
        83.8       83.8       83.8       83.7       83.7       83.7       83.7       83.6       83.6       83.6       83.5    
        83.5       83.5       83.4       83.4       83.4       83.3       83.3       83.3       83.3       83.2       83.2    
        83.2       83.1       83.1       83.1       83.1       83.0       83.0       83.0       82.9       82.9       82.9    
        82.8       82.8       82.8       82.8       82.7       82.7       82.7       82.6       82.6       82.6       82.5    
        82.5       82.5       82.4       82.4       82.4       82.4       82.3       82.3       82.3       82.2       82.2    
        82.2       82.2       82.1       82.1       82.1       82.0       82.0       82.0       81.9       81.9       81.9    
        81.8       81.8       81.8       81.8       81.7       81.7       81.7       81.6       81.6       81.6       81.6    
        81.5       81.5       81.5       81.4       81.4       81.4       81.3       81.3       81.3       81.2       81.2    
        81.2       81.2       81.1       81.1       81.1       81.0       81.0       81.0       80.9       80.9       80.9    
        80.9       80.8       80.8       80.8       80.7       80.7       80.7       80.7       80.6       80.6       80.6    
        80.5    
   2    100.       100.       99.9       99.9       99.9       99.8       99.8       99.8       99.8       99.7       99.7    
        99.7       99.6       99.6       99.6       99.6       99.5       99.5       99.5       99.4       99.4       99.4    
        99.3       99.3       99.3       99.2       99.2       99.2       99.2       99.1       99.1       99.1       99.0    
        99.0       99.0       98.9       98.9       98.9       98.9       98.8       98.8       98.8       98.7       98.7    
        98.7       98.7       98.6       98.6       98.6       98.5       98.5       98.5       98.4       98.4       98.4    
        98.3       98.3       98.3       98.3       98.2       98.2       98.2       98.1       98.1       98.1       98.1    
        98.0       98.0       98.0       97.9       97.9       97.9       97.8       97.8       97.8       97.8       97.7    
        97.7       97.7       97.6       97.6       97.6       97.5       97.5       97.5       97.4       97.4       97.4    
        97.4       97.3       97.3       97.3       97.2       97.2       97.2       97.2       97.1       97.1       97.1    
        97.0       97.0       97.0       96.9       96.9       96.9       96.8       96.8       96.8       96.8       96.7    
        96.7       96.7       96.6       96.6       96.6       96.6       96.5       96.5       96.5       96.4       96.4    
        96.4       96.3       96.3       96.3       96.2       96.2       96.2       96.2       96.1       96.1       96.1    
        96.0       96.0       96.0       95.9       95.9       95.9       95.9       95.8       95.8       95.8       95.7    
        95.7       95.7       95.7       95.6       95.6       95.6       95.5       95.5       95.5       95.4       95.4    
        95.4       95.3       95.3       95.3       95.3       95.2       95.2       95.2       95.1       95.1       95.1    
        95.1       95.0       95.0       95.0       94.9       94.9       94.9       94.8       94.8       94.8       94.8    
        94.7       94.7       94.7       94.6       94.6       94.6       94.5       94.5       94.5       94.4       94.4    
        94.4       94.4       94.3       94.3       94.3       94.2       94.2       94.2       94.2       94.1       94.1    
        94.1       94.0       94.0       94.0       93.9       93.9       93.9       93.8       93.8       93.8       93.8    
        93.7       93.7       93.7       93.6       93.6       93.6       93.6       93.5       93.5       93.5       93.4    
        93.4       93.4       93.3       93.3       93.3       93.2       93.2       93.2       93.2       93.1       93.1    
        93.1       93.0       93.0       93.0       92.9       92.9       92.9       92.9       92.8       92.8       92.8    
        92.7       92.7       92.7       92.7       92.6       92.6       92.6       92.5       92.5       92.5       92.4    
        92.4       92.4       92.3       92.3       92.3       92.3       92.2       92.2       92.2       92.1       92.1    
        92.1       92.1       92.0       92.0       92.0       91.9       91.9       91.9       91.8       91.8       91.8    
        91.8       91.7       91.7       91.7       91.6       91.6       91.6       91.5       91.5       91.5       91.4    
        91.4       91.4       91.4       91.3       91.3       91.3       91.2       91.2       91.2       91.2       91.1    
        91.1       91.1       91.0       91.0       91.0       90.9       90.9       90.9       90.8       90.8       90.8    
        90.8       90.7       90.7       90.7       90.6       90.6       90.6       90.6       90.5       90.5       90.5    
        90.4       90.4       90.4       90.3       90.3       90.3       90.2       90.2       90.2       90.2       90.1    
        90.1       90.1       90.0       90.0       90.0       89.9       89.9       89.9       89.9       89.8       89.8    
        89.8       89.7       89.7       89.7       89.7       89.6       89.6       89.6       89.5       89.5       89.5    
        89.4       89.4       89.4       89.3       89.3       89.3       89.3       89.2       89.2       89.2       89.1    
        89.1       89.1       89.1       89.0       89.0       89.0       88.9       88.9       88.9       88.8       88.8    
        88.8       88.8       88.7       88.7       88.7       88.6       88.6       88.6       88.5       88.5       88.5    
        88.4       88.4       88.4       88.4       88.3       88.3       88.3       88.2       88.2       88.2       88.2    
        88.1       88.1       88.1       88.0       88.0       88.0       87.9       87.9       87.9       87.8       87.8    
        87.8       87.8       87.7       87.7       87.7       87.6       87.6       87.6       87.6       87.5       87.5    
        87.5       87.4       87.4       87.4       87.3       87.3       87.3       87.2       87.2       87.2       87.2    
        87.1       87.1       87.1       87.0       87.0       87.0       86.9       86.9       86.9       86.9       86.8    
        86.8       86.8       86.7       86.7       86.7       86.7       86.6       86.6       86.6       86.5       86.5    
        86.5       86.4       86.4       86.4       86.3       86.3       86.3       86.3       86.2       86.2       86.2    
        86.1       86.1       86.1       86.1       86.0       86.0       86.0       85.9       85.9       85.9       85.8    
        85.8       85.8       85.8       85.7       85.7       85.7       85.6       85.6       85.6       85.5       85.5    
        85.5       85.4       85.4       85.4       85.4       85.3       85.3       85.3       85.2       85.2       85.2    
        85.2       85.1       85.1       85.1       85.0       85.0       85.0       84.9       84.9       84.9       84.8    
        84.8       84.8       84.8       84.7       84.7       84.7       84.6       84.6       84.6       84.6       84.5    
        84.5       84.5       84.4       84.4       84.4       84.3       84.3       84.3       84.2       84.2       84.2    
        84.2       84.1       84.1       84.1       84.0       84.0       84.0       83.9       83.9       83.9       83.9    
        83.8       83.8       83.8       83.7       83.7       83.7       83.7       83.6       83.6       83.6       83.5    
        83.5       83.5       83.4       83.4       83.4       83.3       83.3       83.3       83.3       83.2       83.2    
        83.2       83.1       83.1       83.1       83.1       83.0       83.0       83.0       82.9       82.9       82.9    
        82.8       82.8       82.8       82.8       82.7       82.7       82.7       82.6       82.6       82.6       82.5    
        82.5       82.5       82.4       82.4       82.4       82.4       82.3       82.3       82.3       82.2       82.2    
        82.2       82.2       82.1       82.1       82.1       82.0       82.0       82.0       81.9       81.9       81.9    
        81.8       81.8       81.8       81.8       81.7       81.7       81.7       81.6       81.6       81.6       81.6    
        81.5       81.5       81.5       81.4       81.4       81.4       81.3       81.3       81.3       81.2       81.2    
        81.2       81.2       81.1       81.1       81.1       81.0       81.0       81.0       80.9       80.9       80.9    
        80.9       80.8       80.8       80.8       80.7       80.7       80.7       80.7       80.6       80.6       80.6    
        80.5    
   3    100.       100.       99.9       99.9       99.9       99.8       99.8       99.8       99.8       99.7       99.7    
        99.7       99.6       99.6       99.6       99.6       99.5       99.5       99.5       99.4       99.4       99.4    
        99.3       99.3       99.3       99.2       99.2       99.2       99.2       99.1       99.1       99.1       99.0    
        99.0       99.0       98.9       98.9       98.9       98.9       98.8       98.8       98.8       98.7       98.7    
        98.7       98.7       98.6       98.6       98.6       98.5       98.5       98.5       98.4       98.4       98.4    
        98.3       98.3       98.3       98.3       98.2       98.2       98.2       98.1       98.1       98.1       98.1    
        98.0       98.0       98.0       97.9       97.9       97.9       97.8       97.8       97.8       97.8       97.7    
        97.7       97.7       97.6       97.6       97.6       97.5       97.5       97.5       97.4       97.4       97.4    
        97.4       97.3       97.3       97.3       97.2       97.2       97.2       97.2       97.1       97.1       97.1    
        97.0       97.0       97.0       96.9       96.9       96.9       96.8       96.8       96.8       96.8       96.7    
        96.7       96.7       96.6       96.6       96.6       96.6       96.5       96.5       96.5       96.4       96.4    
        96.4       96.3       96.3       96.3       96.2       96.2       96.2       96.2       96.1       96.1       96.1    
        96.0       96.0       96.0       95.9       95.9       95.9       95.9       95.8       95.8       95.8       95.7    
        95.7       95.7       95.7       95.6       95.6       95.6       95.5       95.5       95.5       95.4       95.4    
        95.4       95.3       95.3       95.3       95.3       95.2       95.2       95.2       95.1       95.1       95.1    
        95.1       95.0       95.0       95.0       94.9       94.9       94.9       94.8       94.8       94.8       94.8    
        94.7       94.7       94.7       94.6       94.6       94.6       94.5       94.5       94.5       94.4       94.4    
        94.4       94.4       94.3       94.3       94.3       94.2       94.2       94.2       94.2       94.1       94.1    
        94.1       94.0       94.0       94.0       93.9       93.9       93.9       93.8       93.8       93.8       93.8    
        93.7       93.7       93.7       93.6       93.6       93.6       93.6       93.5       93.5       93.5       93.4    
        93.4       93.4       93.3       93.3       93.3       93.2       93.2       93.2       93.2       93.1       93.1    
        93.1       93.0       93.0       93.0       92.9       92.9       92.9       92.9       92.8       92.8       92.8    
        92.7       92.7       92.7       92.7       92.6       92.6       92.6       92.5       92.5       92.5       92.4    
        92.4       92.4       92.3       92.3       92.3       92.3       92.2       92.2       92.2       92.1       92.1    
        92.1       92.1       92.0       92.0       92.0       91.9       91.9       91.9       91.8       91.8       91.8    
        91.8       91.7       91.7       91.7       91.6       91.6       91.6       91.5       91.5       91.5       91.4    
        91.4       91.4       91.4       91.3       91.3       91.3       91.2       91.2       91.2       91.2       91.1    
        91.1       91.1       91.0       91.0       91.0       90.9       90.9       90.9       90.8       90.8       90.8    
        90.8       90.7       90.7       90.7       90.6       90.6       90.6       90.6       90.5       90.5       90.5    
        90.4       90.4       90.4       90.3       90.3       90.3       90.2       90.2       90.2       90.2       90.1    
        90.1       90.1       90.0       90.0       90.0       89.9       89.9       89.9       89.9       89.8       89.8    
        89.8       89.7       89.7       89.7       89.7       89.6       89.6       89.6       89.5       89.5       89.5    
        89.4       89.4       89.4       89.3       89.3       89.3       89.3       89.2       89.2       89.2       89.1    
        89.1       89.1       89.1       89.0       89.0       89.0       88.9       88.9       88.9       88.8       88.8    
        88.8       88.8       88.7       88.7       88.7       88.6       88.6       88.6       88.5       88.5       88.5    
        88.4       88.4       88.4       88.4       88.3       88.3       88.3       88.2       88.2       88.2       88.2    
        88.1       88.1       88.1       88.0       88.0       88.0       87.9       87.9       87.9       87.8       87.8    